[TITLE]
;;Project Title/Notes

[OPTIONS]
;;Option             Value
FLOW_UNITS           LPS
INFILTRATION         HORTON
FLOW_ROUTING         DYNWAVE
LINK_OFFSETS         DEPTH
MIN_SLOPE            0
ALLOW_PONDING        NO
SKIP_STEADY_STATE    NO

START_DATE           04/01/1980
START_TIME           00:00:00
REPORT_START_DATE    04/01/1980
REPORT_START_TIME    00:00:00
END_DATE             11/01/1980
END_TIME             00:00:00
SWEEP_START          01/01
SWEEP_END            12/31
DRY_DAYS             3.000000
REPORT_STEP          01:00:00
WET_STEP             01:00:00
DRY_STEP             05:00:00
ROUTING_STEP         0:00:30 

INERTIAL_DAMPING     NONE
NORMAL_FLOW_LIMITED  BOTH
FORCE_MAIN_EQUATION  H-W
VARIABLE_STEP        0.75
LENGTHENING_STEP     10
MIN_SURFAREA         0
MAX_TRIALS           0
HEAD_TOLERANCE       0
SYS_FLOW_TOL         5
LAT_FLOW_TOL         5
MINIMUM_STEP         0.5
THREADS              1

[EVAPORATION]
;;Data Source    Parameters
;;-------------- ----------------
CONSTANT         0.0
DRY_ONLY         NO

[RAINGAGES]
;;Name           Format    Interval SCF      Source    
;;-------------- --------- ------ ------ ----------
; Stamford Interceptor
RAINGAGE-1       VOLUME    1.000000 1.000000 TIMESERIES TYPICAL-YEAR-RAIN

[SUBCATCHMENTS]
;;Name           Rain Gage        Outlet           Area     %Imperv  Width    %Slope   CurbLen  SnowPack        
;;-------------- ---------------- ---------------- -------- -------- -------- -------- -------- ----------------
23001921         RAINGAGE-1       10410852         0.010000 0.000000 0.000000 0.000000 0.000000                 
23001922         RAINGAGE-1       10410852         0.010000 0.000000 0.000000 0.002000 0.000000                 
23001923         RAINGAGE-1       10410852         0.010000 0.000000 0.000000 0.002000 0.000000                 
23001924         RAINGAGE-1       10410852         0.010000 0.000000 0.000000 0.000000 0.000000                 
23001925         RAINGAGE-1       10410852         0.010000 0.000000 0.000000 0.002000 0.000000                 
23001926         RAINGAGE-1       10410852         396.088000 39.300000 1620.000000 0.002000 0.000000                 
23001927         RAINGAGE-1       10000198         116.300000 15.265000 1320.000000 0.002000 0.000000                 
23001928         RAINGAGE-1       10001479         40.900000 20.000000 780.000000 0.002000 0.000000                 
23001929         RAINGAGE-1       10000399         34.700000 17.000000 720.000000 0.002000 0.000000                 
23001930         RAINGAGE-1       10000196         37.600000 17.000000 750.000000 0.002000 0.000000                 
23001931         RAINGAGE-1       10000302         0.010000 0.000000 0.000000 0.000000 0.000000                 
23001932         RAINGAGE-1       10000579         67.000000 19.000000 1340.000000 0.002000 0.000000                 
23001933         RAINGAGE-1       10000604         99.400000 19.000000 1620.000000 0.002000 0.000000                 
23001934         RAINGAGE-1       10000019         0.010000 0.000000 0.000000 0.000000 0.000000                 
23001935         RAINGAGE-1       10000150         111.770000 7.000000 860.000000 0.002000 0.000000                 
23001936         RAINGAGE-1       10000149         55.760000 8.000000 610.000000 0.002000 0.000000                 
23001937         RAINGAGE-1       10410852         0.010000 0.000000 0.000000 0.002000 0.000000                 
23001938         RAINGAGE-1       1049165          15.370000 10.500000 939.000000 0.002000 0.000000                 
23001939         RAINGAGE-1       10000494         162.600000 5.000000 1040.000000 0.002000 0.000000                 
23001940         RAINGAGE-1       10000477         0.010000 0.000000 0.000000 0.000000 0.000000                 
23001941         RAINGAGE-1       10000491         0.010000 0.000000 0.000000 0.002000 0.000000                 
23001942         RAINGAGE-1       10000644         243.000000 5.790000 2540.000000 0.002000 0.000000                 
23001943         RAINGAGE-1       10000495         46.400000 5.000000 560.000000 0.002000 0.000000                 
23001944         RAINGAGE-1       10000534         0.010000 0.000000 0.000000 0.002000 0.000000                 
23001945         RAINGAGE-1       1046859          192.000000 14.000000 1130.000000 0.002000 0.000000                 
23001946         RAINGAGE-1       10000296         23.000000 3.200000 780.000000 0.000000 0.000000                 
23001947         RAINGAGE-1       10000417         215.950000 5.000000 6600.000000 0.002000 0.000000                 
23001948         RAINGAGE-1       10000131         28.310000 6.800000 5330.000000 0.002000 0.000000                 
23001949         RAINGAGE-1       10000559         0.010000 0.000000 0.000000 0.002000 0.000000                 
23001950         RAINGAGE-1       10000557         0.010000 0.000000 0.000000 0.002000 0.000000                 
23001951         RAINGAGE-1       10000413         12.970000 4.000000 550.000000 0.002000 0.000000                 
23001952         RAINGAGE-1       1049165          26.110000 5.000000 298.000000 0.002000 0.000000                 
23001953         RAINGAGE-1       1049163          53.840000 7.000000 449.000000 0.002000 0.000000                 
23001954         RAINGAGE-1       1049165          108.820000 3.500000 328.000000 0.002000 0.000000                 
23001955         RAINGAGE-1       1046328          98.000000 19.000000 2750.000000 0.002000 0.000000                 
23001956         RAINGAGE-1       1048818          46.650000 13.800000 1772.000000 0.002000 0.000000                 
23001957         RAINGAGE-1       1048907          97.450000 10.000000 4500.000000 0.002000 0.000000                 
23001958         RAINGAGE-1       10001508         527.160000 46.800000 3740.000000 0.002000 0.000000                 
23001959         RAINGAGE-1       10000204         0.010000 0.000000 0.000000 0.002000 0.000000                 
23001960         RAINGAGE-1       1049082          63.330000 7.300000 425.000000 0.002000 0.000000                 
23001961         RAINGAGE-1       10000277         0.010000 0.000000 0.000000 0.002000 0.000000                 
23001962         RAINGAGE-1       10000280         65.830000 9.500000 450.000000 0.002000 0.000000                 
23001963         RAINGAGE-1       1049163          180.640000 15.300000 2200.000000 0.002000 0.000000                 
23002083         RAINGAGE-1       10410852         0.010000 0.000000 0.000000 0.002000 0.000000                 
23002084         RAINGAGE-1       10410852         0.010000 0.000000 0.000000 0.000000 0.000000                 
23002085         RAINGAGE-1       10410852         0.010000 0.000000 0.000000 0.002000 0.000000                 
23002086         RAINGAGE-1       10000489         24.100000 6.400000 400.000000 0.002000 0.000000                 
23002087         RAINGAGE-1       1049163          38.000000 3.500000 270.000000 0.002000 0.000000                 

[SUBAREAS]
;;Subcatchment   N-Imperv   N-Perv     S-Imperv   S-Perv     PctZero    RouteTo    PctRouted 
;;-------------- ---------- ---------- ---------- ---------- ---------- ---------- ----------
23001921         0.000000   0.000000   0.000000   0.000000   0.000000   OUTLET    
23001922         0.055000   0.350000   2.500000   4.500000   5.000000   OUTLET    
23001923         0.055000   0.350000   2.500000   4.500000   5.000000   OUTLET    
23001924         0.000000   0.000000   0.000000   0.000000   0.000000   OUTLET    
23001925         0.055000   0.350000   2.500000   4.500000   5.000000   OUTLET    
23001926         0.055000   0.350000   2.500000   4.500000   5.000000   OUTLET    
23001927         0.055000   0.350000   2.500000   4.500000   5.000000   OUTLET    
23001928         0.055000   0.350000   2.500000   4.500000   5.000000   OUTLET    
23001929         0.055000   0.350000   2.500000   4.500000   5.000000   OUTLET    
23001930         0.055000   0.350000   2.500000   4.500000   5.000000   OUTLET    
23001931         0.000000   0.000000   0.000000   0.000000   0.000000   OUTLET    
23001932         0.055000   0.350000   2.500000   4.500000   5.000000   OUTLET    
23001933         0.055000   0.350000   2.500000   4.500000   5.000000   OUTLET    
23001934         0.000000   0.000000   0.000000   0.000000   0.000000   OUTLET    
23001935         0.055000   0.350000   2.500000   4.500000   5.000000   OUTLET    
23001936         0.055000   0.350000   2.500000   4.500000   5.000000   OUTLET    
23001937         0.055000   0.350000   2.500000   4.500000   5.000000   OUTLET    
23001938         0.055000   0.350000   2.500000   4.500000   5.000000   OUTLET    
23001939         0.055000   0.350000   2.500000   4.500000   5.000000   OUTLET    
23001940         0.000000   0.000000   0.000000   0.000000   0.000000   OUTLET    
23001941         0.055000   0.350000   2.500000   4.500000   5.000000   OUTLET    
23001942         0.055000   0.350000   2.500000   4.500000   5.000000   OUTLET    
23001943         0.055000   0.350000   2.500000   4.500000   5.000000   OUTLET    
23001944         0.055000   0.350000   2.500000   4.500000   5.000000   OUTLET    
23001945         0.055000   0.350000   2.500000   4.500000   5.000000   OUTLET    
23001946         0.055000   0.350000   2.500000   4.500000   5.000000   OUTLET    
23001947         0.055000   0.350000   2.500000   4.500000   5.000000   OUTLET    
23001948         0.055000   0.350000   2.500000   4.500000   5.000000   OUTLET    
23001949         0.055000   0.350000   2.500000   4.500000   5.000000   OUTLET    
23001950         0.055000   0.350000   2.500000   4.500000   5.000000   OUTLET    
23001951         0.055000   0.350000   2.500000   4.500000   5.000000   OUTLET    
23001952         0.055000   0.350000   2.500000   4.500000   5.000000   OUTLET    
23001953         0.055000   0.350000   2.500000   4.500000   5.000000   OUTLET    
23001954         0.055000   0.350000   2.500000   4.500000   5.000000   OUTLET    
23001955         0.055000   0.350000   2.500000   4.500000   5.000000   OUTLET    
23001956         0.055000   0.350000   2.500000   4.500000   5.000000   OUTLET    
23001957         0.055000   0.350000   2.500000   4.500000   5.000000   OUTLET    
23001958         0.055000   0.350000   2.500000   4.500000   5.000000   OUTLET    
23001959         0.055000   0.350000   2.500000   4.500000   5.000000   OUTLET    
23001960         0.055000   0.350000   2.500000   4.500000   5.000000   OUTLET    
23001961         0.055000   0.350000   2.500000   4.500000   5.000000   OUTLET    
23001962         0.055000   0.350000   2.500000   4.500000   5.000000   OUTLET    
23001963         0.055000   0.350000   2.500000   4.500000   5.000000   OUTLET    
23002083         0.055000   0.350000   2.500000   4.500000   5.000000   OUTLET    
23002084         0.000000   0.000000   0.000000   0.000000   0.000000   OUTLET    
23002085         0.055000   0.350000   2.500000   4.500000   5.000000   OUTLET    
23002086         0.055000   0.350000   2.500000   4.500000   5.000000   OUTLET    
23002087         0.055000   0.350000   2.500000   4.500000   5.000000   OUTLET    

[INFILTRATION]
;;Subcatchment   MaxRate    MinRate    Decay      DryTime    MaxInfil  
;;-------------- ---------- ---------- ---------- ---------- ----------
23001921         76.000000  6.500000   4.140000   5.000000   0.000000  
23001922         76.000000  6.500000   4.140000   5.000000   0.000000  
23001923         76.000000  6.500000   4.140000   5.000000   0.000000  
23001924         76.000000  6.500000   4.140000   5.000000   0.000000  
23001925         76.000000  6.500000   4.140000   5.000000   0.000000  
23001926         76.000000  6.500000   4.140000   5.000000   0.000000  
23001927         76.000000  6.500000   4.140000   5.000000   0.000000  
23001928         76.000000  6.500000   4.140000   5.000000   0.000000  
23001929         76.000000  6.500000   4.140000   5.000000   0.000000  
23001930         76.000000  6.500000   4.140000   5.000000   0.000000  
23001931         76.000000  6.500000   4.140000   5.000000   0.000000  
23001932         76.000000  6.500000   4.140000   5.000000   0.000000  
23001933         76.000000  6.500000   4.140000   5.000000   0.000000  
23001934         76.000000  6.500000   4.140000   5.000000   0.000000  
23001935         76.000000  6.500000   4.140000   5.000000   0.000000  
23001936         76.000000  6.500000   4.140000   5.000000   0.000000  
23001937         76.000000  6.500000   4.140000   5.000000   0.000000  
23001938         76.000000  6.500000   4.140000   5.000000   0.000000  
23001939         76.000000  6.500000   4.140000   5.000000   0.000000  
23001940         76.000000  6.500000   4.140000   5.000000   0.000000  
23001941         76.000000  6.500000   4.140000   5.000000   0.000000  
23001942         76.000000  6.500000   4.140000   5.000000   0.000000  
23001943         76.000000  6.500000   4.140000   5.000000   0.000000  
23001944         76.000000  6.500000   4.140000   5.000000   0.000000  
23001945         76.000000  6.500000   4.140000   5.000000   0.000000  
23001946         76.000000  6.500000   4.140000   5.000000   0.000000  
23001947         76.000000  6.500000   4.140000   5.000000   0.000000  
23001948         76.000000  6.500000   4.140000   5.000000   0.000000  
23001949         76.000000  6.500000   4.140000   5.000000   0.000000  
23001950         76.000000  6.500000   4.140000   5.000000   0.000000  
23001951         76.000000  6.500000   4.140000   5.000000   0.000000  
23001952         76.000000  6.500000   4.140000   5.000000   0.000000  
23001953         76.000000  6.500000   4.140000   5.000000   0.000000  
23001954         76.000000  6.500000   4.140000   5.000000   0.000000  
23001955         76.000000  6.500000   4.140000   5.000000   0.000000  
23001956         76.000000  6.500000   4.140000   5.000000   0.000000  
23001957         76.000000  6.500000   4.140000   5.000000   0.000000  
23001958         76.000000  6.500000   4.140000   5.000000   0.000000  
23001959         76.000000  6.500000   4.140000   5.000000   0.000000  
23001960         76.000000  6.500000   4.140000   5.000000   0.000000  
23001961         76.000000  6.500000   4.140000   5.000000   0.000000  
23001962         76.000000  6.500000   4.140000   5.000000   0.000000  
23001963         76.000000  6.500000   4.140000   5.000000   0.000000  
23002083         76.000000  6.500000   4.140000   5.000000   0.000000  
23002084         76.000000  6.500000   4.140000   5.000000   0.000000  
23002085         76.000000  6.500000   4.140000   5.000000   0.000000  
23002086         76.000000  6.500000   4.140000   5.000000   0.000000  
23002087         76.000000  6.500000   4.140000   5.000000   0.000000  

[JUNCTIONS]
;;Name           Elevation  MaxDepth   InitDepth  SurDepth   Aponded   
;;-------------- ---------- ---------- ---------- ---------- ----------
10000005         188.100000 4.839000   0.000000   0.000000   0.000000  
10000017         173.190000 7.849000   0.000000   0.000000   0.000000  
10000018         172.670000 8.387000   0.000000   0.000000   0.000000  
10000019         172.540000 8.682000   0.000000   0.000000   0.000000  
10000020         172.360000 7.777000   0.000000   0.000000   0.000000  
10000021         172.190000 8.692000   0.000000   0.000000   0.000000  
10000022         172.670000 5.368000   0.000000   0.000000   0.000000  
10000023         172.510000 5.576000   0.000000   0.000000   0.000000  
10000024         172.360000 2.870000   0.000000   0.000000   0.000000  
10000025         174.460000 5.625000   0.000000   0.000000   0.000000  
10000026         174.690000 5.864000   0.000000   0.000000   0.000000  
10000027         174.860000 5.334000   0.000000   0.000000   0.000000  
10000028         175.050000 5.369000   0.000000   0.000000   0.000000  
10000029         175.210000 3.971000   0.000000   0.000000   0.000000  
10000131         175.370000 3.630000   0.000000   0.000000   0.000000  
10000132         177.570000 2.051000   0.000000   0.000000   0.000000  
10000133         176.740000 1.456000   0.000000   0.000000   0.000000  
10000134         175.670000 2.330000   0.000000   0.000000   0.000000  
10000135         175.560000 2.371000   0.000000   0.000000   0.000000  
10000136         175.230000 1.756000   0.000000   0.000000   0.000000  
10000140         174.560000 1.411000   0.000000   0.000000   0.000000  
10000142         172.680000 8.562000   0.000000   0.000000   0.000000  
10000143         175.600000 5.784000   0.000000   0.000000   0.000000  
10000144         175.800000 5.568000   0.000000   0.000000   0.000000  
10000145         190.200000 1.642000   0.000000   0.000000   0.000000  
10000146         189.900000 2.100000   0.000000   0.000000   0.000000  
10000147         176.200000 3.459000   0.000000   0.000000   0.000000  
10000148         176.500000 2.661000   0.000000   0.000000   0.000000  
10000149         176.800000 4.725000   0.000000   0.000000   0.000000  
10000150         175.860000 6.168000   0.000000   0.000000   0.000000  
10000151         175.590000 6.284000   0.000000   0.000000   0.000000  
10000152         175.360000 6.415000   0.000000   0.000000   0.000000  
10000153         175.170000 6.206000   0.000000   0.000000   0.000000  
10000154         175.070000 6.133000   0.000000   0.000000   0.000000  
10000155         174.920000 6.105000   0.000000   0.000000   0.000000  
10000156         174.710000 5.546000   0.000000   0.000000   0.000000  
10000157         174.360000 5.745000   0.000000   0.000000   0.000000  
10000158         174.090000 6.063000   0.000000   0.000000   0.000000  
10000159         174.260000 6.852000   0.000000   0.000000   0.000000  
10000160         174.060000 7.077000   0.000000   0.000000   0.000000  
10000161         165.067000 8.489000   0.000000   0.000000   0.000000  
10000162         165.445000 8.605000   0.000000   0.000000   0.000000  
10000191         169.770000 5.829000   0.000000   0.000000   0.000000  
10000192         169.670000 5.927000   0.000000   0.000000   0.000000  
10000193         169.570000 6.304000   0.000000   0.000000   0.000000  
10000194         169.460000 6.786000   0.000000   0.000000   0.000000  
10000195         169.360000 4.994000   0.000000   0.000000   0.000000  
10000196         168.150000 4.841000   0.000000   0.000000   0.000000  
10000197         167.940000 4.973000   0.000000   0.000000   0.000000  
10000198         167.680000 4.996000   0.000000   0.000000   0.000000  
10000199         167.640000 5.202000   0.000000   0.000000   0.000000  
10000200         167.600000 5.605000   0.000000   0.000000   0.000000  
10000201         167.460000 6.032000   0.000000   0.000000   0.000000  
10000202         189.600000 2.360000   0.000000   0.000000   0.000000  
10000203         189.300000 2.341000   0.000000   0.000000   0.000000  
10000204         189.200000 3.751000   0.000000   0.000000   0.000000  
10000259         189.100000 4.292000   0.000000   0.000000   0.000000  
10000260         188.800000 4.741000   0.000000   0.000000   0.000000  
10000261         188.550000 4.992000   0.000000   0.000000   0.000000  
10000262         188.310000 4.701000   0.000000   0.000000   0.000000  
10000263         188.100000 3.572000   0.000000   0.000000   0.000000  
10000264         187.900000 2.890000   0.000000   0.000000   0.000000  
10000265         187.200000 3.378000   0.000000   0.000000   0.000000  
10000266         186.500000 3.611000   0.000000   0.000000   0.000000  
10000267         185.500000 2.554000   0.000000   0.000000   0.000000  
10000268         185.020000 1.977000   0.000000   0.000000   0.000000  
10000269         183.900000 2.175000   0.000000   0.000000   0.000000  
10000270         182.730000 1.441000   0.000000   0.000000   0.000000  
10000271         181.630000 1.524000   0.000000   0.000000   0.000000  
10000272         180.650000 2.273000   0.000000   0.000000   0.000000  
10000273         180.000000 2.072000   0.000000   0.000000   0.000000  
10000274         179.350000 2.650000   0.000000   0.000000   0.000000  
10000275         178.680000 2.323000   0.000000   0.000000   0.000000  
10000276         178.130000 3.016000   0.000000   0.000000   0.000000  
10000277         177.880000 5.235000   0.000000   0.000000   0.000000  
10000278         176.940000 4.064000   0.000000   0.000000   0.000000  
10000279         175.870000 3.177000   0.000000   0.000000   0.000000  
10000280         174.680000 4.703000   0.000000   0.000000   0.000000  
10000281         173.580000 2.660000   0.000000   0.000000   0.000000  
10000282         173.030000 4.299000   0.000000   0.000000   0.000000  
10000283         172.410000 3.554000   0.000000   0.000000   0.000000  
10000285         184.250000 1.644000   0.000000   0.000000   0.000000  
10000286         183.690000 2.274000   0.000000   0.000000   0.000000  
10000287         183.150000 1.793000   0.000000   0.000000   0.000000  
10000288         182.760000 2.057000   0.000000   0.000000   0.000000  
10000289         181.780000 2.150000   0.000000   0.000000   0.000000  
10000290         173.840000 6.183000   0.000000   0.000000   0.000000  
10000291         173.520000 6.692000   0.000000   0.000000   0.000000  
10000292         174.400000 6.600000   0.000000   0.000000   0.000000  
10000293         174.730000 6.270000   0.000000   0.000000   0.000000  
10000294         174.960000 6.090000   0.000000   0.000000   0.000000  
10000295         175.260000 5.740000   0.000000   0.000000   0.000000  
10000296         175.540000 4.962000   0.000000   0.000000   0.000000  
10000297         176.000000 5.024000   0.000000   0.000000   0.000000  
10000298         176.410000 4.598000   0.000000   0.000000   0.000000  
10000299         176.780000 3.887000   0.000000   0.000000   0.000000  
10000300         177.040000 4.672000   0.000000   0.000000   0.000000  
10000301         177.470000 2.564000   0.000000   0.000000   0.000000  
10000302         176.065000 3.935000   0.000000   0.000000   0.000000  
10000317         174.980000 5.020000   0.000000   0.000000   0.000000  
10000318         169.360000 4.664000   0.000000   0.000000   0.000000  
10000366         175.480000 7.383000   0.000000   0.000000   0.000000  
10000367         190.660000 1.740000   0.000000   0.000000   0.000000  
10000368         190.500000 2.110000   0.000000   0.000000   0.000000  
10000369         165.537000 7.382000   0.000000   0.000000   0.000000  
10000388         170.630000 6.410000   0.000000   0.000000   0.000000  
10000389         170.510000 10.335000  0.000000   0.000000   0.000000  
10000390         170.440000 7.213000   0.000000   0.000000   0.000000  
10000391         170.310000 5.998000   0.000000   0.000000   0.000000  
10000392         170.180000 4.879000   0.000000   0.000000   0.000000  
10000393         170.070000 5.189000   0.000000   0.000000   0.000000  
10000394         170.940000 7.555000   0.000000   0.000000   0.000000  
10000395         170.820000 4.348000   0.000000   0.000000   0.000000  
10000396         169.970000 5.722000   0.000000   0.000000   0.000000  
10000397         169.870000 5.712000   0.000000   0.000000   0.000000  
10000398         167.240000 5.912000   0.000000   0.000000   0.000000  
10000399         166.900000 6.019000   0.000000   0.000000   0.000000  
10000400         165.430000 6.972000   0.000000   0.000000   0.000000  
10000409         174.250000 6.945000   0.000000   0.000000   0.000000  
10000410         174.410000 7.312000   0.000000   0.000000   0.000000  
10000411         174.570000 7.005000   0.000000   0.000000   0.000000  
10000412         174.710000 6.035000   0.000000   0.000000   0.000000  
10000413         174.790000 6.135000   0.000000   0.000000   0.000000  
10000414         174.870000 5.393000   0.000000   0.000000   0.000000  
10000415         175.030000 7.078000   0.000000   0.000000   0.000000  
10000416         175.280000 7.103000   0.000000   0.000000   0.000000  
10000417         175.380000 7.430000   0.000000   0.000000   0.000000  
10000475         180.000000 2.005000   0.000000   0.000000   0.000000  
10000476         182.930000 7.270000   0.000000   0.000000   0.000000  
10000477         182.820000 7.011000   0.000000   0.000000   0.000000  
10000478         182.990000 5.947000   0.000000   0.000000   0.000000  
10000484         182.810000 5.063000   0.000000   0.000000   0.000000  
10000485         182.390000 4.922000   0.000000   0.000000   0.000000  
10000486         182.120000 4.264000   0.000000   0.000000   0.000000  
10000487         181.940000 4.064000   0.000000   0.000000   0.000000  
10000488         181.770000 3.068000   0.000000   0.000000   0.000000  
10000489         181.470000 3.885000   0.000000   0.000000   0.000000  
10000490         181.240000 2.787000   0.000000   0.000000   0.000000  
10000491         181.050000 4.955000   0.000000   0.000000   0.000000  
10000492         180.720000 6.532000   0.000000   0.000000   0.000000  
10000493         180.420000 7.687000   0.000000   0.000000   0.000000  
10000494         178.710000 9.209000   0.000000   0.000000   0.000000  
10000495         178.430000 9.397000   0.000000   0.000000   0.000000  
10000503         192.000000 0.586000   0.000000   0.000000   0.000000  
10000534         178.280000 8.036000   0.000000   0.000000   0.000000  
10000535         196.080000 3.082000   0.000000   0.000000   0.000000  
10000536         195.430000 3.160000   0.000000   0.000000   0.000000  
10000537         194.810000 3.658000   0.000000   0.000000   0.000000  
10000538         194.670000 2.679000   0.000000   0.000000   0.000000  
10000545         194.050000 3.578000   0.000000   0.000000   0.000000  
10000546         192.650000 3.657000   0.000000   0.000000   0.000000  
10000547         191.050000 4.406000   0.000000   0.000000   0.000000  
10000548         189.080000 3.892000   0.000000   0.000000   0.000000  
10000549         187.910000 2.881000   0.000000   0.000000   0.000000  
10000550         186.710000 2.567000   0.000000   0.000000   0.000000  
10000551         185.740000 3.260000   0.000000   0.000000   0.000000  
10000552         185.140000 2.663000   0.000000   0.000000   0.000000  
10000553         184.560000 3.005000   0.000000   0.000000   0.000000  
10000554         181.560000 5.553000   0.000000   0.000000   0.000000  
10000555         181.360000 1.819000   0.000000   0.000000   0.000000  
10000556         172.700000 8.498000   0.000000   0.000000   0.000000  
10000557         173.030000 8.955000   0.000000   0.000000   0.000000  
10000558         173.310000 8.300000   0.000000   0.000000   0.000000  
10000559         173.420000 8.534000   0.000000   0.000000   0.000000  
10000560         174.170000 6.830000   0.000000   0.000000   0.000000  
10000561         172.450000 8.389000   0.000000   0.000000   0.000000  
10000562         181.090000 1.340000   0.000000   0.000000   0.000000  
10000563         180.420000 1.893000   0.000000   0.000000   0.000000  
10000564         180.380000 1.860000   0.000000   0.000000   0.000000  
10000574         179.910000 1.935000   0.000000   0.000000   0.000000  
10000575         179.770000 1.992000   0.000000   0.000000   0.000000  
10000576         178.940000 2.949000   0.000000   0.000000   0.000000  
10000577         178.180000 2.842000   0.000000   0.000000   0.000000  
10000578         174.919000 4.217000   0.000000   0.000000   0.000000  
10000579         174.859000 4.602000   0.000000   0.000000   0.000000  
10000580         174.473000 5.676000   0.000000   0.000000   0.000000  
10000581         174.095000 6.609000   0.000000   0.000000   0.000000  
10000582         173.732000 6.412000   0.000000   0.000000   0.000000  
10000583         173.339000 6.820000   0.000000   0.000000   0.000000  
10000602         173.048000 5.950000   0.000000   0.000000   0.000000  
10000603         172.757000 5.930000   0.000000   0.000000   0.000000  
10000604         171.595000 7.127000   0.000000   0.000000   0.000000  
10000605         171.290000 7.333000   0.000000   0.000000   0.000000  
10000606         171.180000 6.820000   0.000000   0.000000   0.000000  
10000607         171.060000 5.962000   0.000000   0.000000   0.000000  
10000608         182.120000 3.427000   0.000000   0.000000   0.000000  
10000644         182.550000 5.465000   0.000000   0.000000   0.000000  
10000645         165.900000 6.585000   0.000000   0.000000   0.000000  
10001372         172.553000 2.447000   0.000000   0.000000   0.000000  
10001373         172.738000 1.681000   0.000000   0.000000   0.000000  
10001374         173.669000 1.360000   0.000000   0.000000   0.000000  
10001375         173.760000 2.396000   0.000000   0.000000   0.000000  
10001376         173.852000 5.391000   0.000000   0.000000   0.000000  
10001479         165.400000 8.638000   0.000000   0.000000   0.000000  
10001508         173.244000 2.195000   0.000000   0.000000   0.000000  
10001509         171.283000 3.926000   0.000000   0.000000   0.000000  
10001510         172.960000 2.404000   0.000000   0.000000   0.000000  
10001512         170.615000 4.185000   0.000000   0.000000   0.000000  
10001513         169.914000 4.746000   0.000000   0.000000   0.000000  
10001514         169.689000 4.635000   0.000000   0.000000   0.000000  
10001515         169.171000 8.559000   0.000000   0.000000   0.000000  
10001906         169.400000 2.942000   0.000000   0.000000   0.000000  
10001907         168.900000 5.791000   0.000000   0.000000   0.000000  
10001908         163.000000 3.970000   0.000000   0.000000   0.000000  
10001909         163.298000 10.656000  0.000000   0.000000   0.000000  
10001910         163.500000 10.503000  0.000000   0.000000   0.000000  
10001911         168.145000 5.975000   0.000000   0.000000   0.000000  
10001912         168.317000 5.685000   0.000000   0.000000   0.000000  